  
       XFOIL         Version 6.99
  
 Calculated polar for: GV03                                            
  
 2 2 Reynolds number ~ 1/sqrt(CL)   Mach number ~ 1/sqrt(CL)  
  
 xtrf =   1.000 (top)        1.000 (bottom)  
 Mach =   0.000     Re =     0.357 e 6     Ncrit =   7.500  7.500
  
   alpha    CL        CD       CDp       CM     Top_Xtr  Bot_Xtr  Top_Itr  Bot_Itr
  ------ -------- --------- --------- -------- -------- -------- -------- --------
  -2.668   0.1000   0.00784   0.00063  -0.0764   0.7168   0.0320  21.3890  92.9113
  -2.215   0.1500   0.00793   0.00058  -0.0764   0.7161   0.0604  21.4406  95.4070
  -1.743   0.2000   0.00774   0.00052  -0.0762   0.7101   0.1565  21.8533 102.1824
  -1.229   0.2500   0.00696   0.00048  -0.0755   0.7005   0.4372  22.5267 121.2562
  -0.661   0.3000   0.00616   0.00059  -0.0729   0.6874   0.7644  23.4341 143.3967
  -0.146   0.3500   0.00616   0.00078  -0.0707   0.6752   0.8928  24.2854 152.0650
   0.271   0.4000   0.00643   0.00094  -0.0710   0.6654   0.9513  24.9637 156.0249
   0.557   0.4500   0.00672   0.00109  -0.0746   0.6591   0.9760  25.4006 157.7557
   0.834   0.5000   0.00696   0.00116  -0.0788   0.6523   0.9848  25.8787 158.4404
   1.123   0.5500   0.00716   0.00121  -0.0828   0.6440   0.9931  26.4546 159.1803
   1.403   0.6000   0.00735   0.00122  -0.0871   0.6354   0.9997  27.0515 159.9689
   1.917   0.6500   0.00759   0.00121  -0.0860   0.6171   1.0000  28.3211 160.0000
   2.450   0.7000   0.00789   0.00122  -0.0844   0.5970   1.0000  29.7147 160.0000
   2.988   0.7500   0.00824   0.00125  -0.0826   0.5766   1.0000  31.1324 160.0000
   3.527   0.8000   0.00860   0.00131  -0.0808   0.5549   1.0000  32.6421 160.0000
   4.071   0.8500   0.00903   0.00139  -0.0789   0.5338   1.0000  34.1112 160.0000
   4.615   0.9000   0.00948   0.00149  -0.0770   0.5110   1.0000  35.6913 160.0000
   5.158   0.9500   0.00998   0.00161  -0.0751   0.4875   1.0000  37.3218 160.0000
   5.713   1.0000   0.01055   0.00173  -0.0731   0.4575   1.0000  39.4061 160.0000
   6.288   1.0500   0.01127   0.00188  -0.0708   0.4209   1.0000  41.9591 160.0000
   6.857   1.1000   0.01201   0.00209  -0.0687   0.3888   1.0000  44.1941 160.0000
